[General]
network = Lab061

sim-time-limit = 1000 ms
Lab061.delay = 15 ms
Lab061.source.queue.cycle = 5 ms
Lab061.intervalTime = 5 ms
Lab061.maxTime = 1000 ms



